REMARK VINA RESULT:     -10.6      2.573      9.632
REMARK  5 active torsions:
REMARK  status: ('A' for Active; 'I' for Inactive)
REMARK       I    between atoms: C16_10  and  N3_28 
REMARK    1  A    between atoms: C16_10  and  C6_40 
REMARK    2  A    between atoms: C17_11  and  N3_28 
REMARK    3  A    between atoms: C19_13  and  C27_24 
REMARK    4  A    between atoms: C25_22  and  O5_39 
REMARK    5  A    between atoms: C27_24  and  C28_25 
ROOT
HETATM    1  C17 LIG G   1       2.967   0.473  11.261  1.00  0.00     0.220 C 
HETATM    2  C18 LIG G   1       2.769  -0.968  10.664  1.00  0.00     0.280 C 
HETATM    3  C19 LIG G   1       1.869  -1.864   8.598  1.00  0.00     0.189 C 
HETATM    4  O2  LIG G   1       1.868   1.178  10.624  1.00  0.00    -0.296 OA
HETATM    5  C20 LIG G   1       1.870  -1.130   7.179  1.00  0.00     0.243 C 
HETATM    6  C21 LIG G   1       1.278   0.899   5.851  1.00  0.00     0.127 C 
HETATM    7  C22 LIG G   1       1.238   2.333   6.314  1.00  0.00     0.022 C 
HETATM    8  C23 LIG G   1       0.935   2.309   7.803  1.00  0.00     0.034 C 
HETATM    9  C24 LIG G   1       1.622   0.927   8.208  1.00  0.00     0.173 C 
HETATM   10  C25 LIG G   1       1.237   0.344   9.606  1.00  0.00     0.276 C 
HETATM   11  C26 LIG G   1       4.373   0.710  10.679  1.00  0.00     0.082 C 
HETATM   12  O3  LIG G   1       3.433  -2.002  10.939  1.00  0.00    -0.268 OA
HETATM   13  N4  LIG G   1       1.768  -0.939   9.691  1.00  0.00    -0.277 N 
HETATM   14  O4  LIG G   1       2.282  -1.814   6.245  1.00  0.00    -0.271 OA
HETATM   15  N5  LIG G   1       1.382   0.100   7.109  1.00  0.00    -0.338 N 
ENDROOT
BRANCH   1  16
HETATM   16  N3  LIG G   1       2.798   0.671  12.598  1.00  0.00    -0.321 N 
HETATM   17  C16 LIG G   1       3.685   0.193  13.572  1.00  0.00     0.229 C 
HETATM   18  O1  LIG G   1       4.619  -0.513  13.253  1.00  0.00    -0.273 OA
HETATM   19  HN3 LIG G   1       2.011   1.188  12.937  1.00  0.00     0.166 HD
BRANCH  17  20
HETATM   20  C6  LIG G   1       3.374   0.681  14.968  1.00  0.00     0.127 C 
HETATM   21  C5  LIG G   1       4.531   0.199  15.872  1.00  0.00     0.253 C 
HETATM   22  N2  LIG G   1       4.258   0.721  17.235  1.00  0.00    -0.065 N 
HETATM   23  C15 LIG G   1       5.124  -0.126  18.239  1.00  0.00     0.270 C 
HETATM   24  C4  LIG G   1       4.246   2.164  17.412  1.00  0.00     0.225 C 
HETATM   25  HN2 LIG G   1       3.301   0.382  17.493  1.00  0.00     0.280 HD
HETATM   26  C3  LIG G   1       3.645   2.708  18.741  1.00  0.00     0.079 C 
HETATM   27  C8  LIG G   1       3.682   2.802  16.077  1.00  0.00    -0.019 C 
HETATM   28  C2  LIG G   1       3.625   4.267  18.803  1.00  0.00    -0.027 A 
HETATM   29  C1  LIG G   1       3.628   5.228  19.706  1.00  0.00     0.096 A 
HETATM   30  C14 LIG G   1       3.621   4.846  17.472  1.00  0.00     0.009 A 
HETATM   31  N1  LIG G   1       3.579   6.483  18.969  1.00  0.00    -0.365 N 
HETATM   32  C13 LIG G   1       3.493   6.246  17.608  1.00  0.00     0.043 A 
HETATM   33  HN1 LIG G   1       3.452   7.389  19.397  1.00  0.00     0.165 HD
HETATM   34  C12 LIG G   1       3.343   7.051  16.537  1.00  0.00     0.030 A 
HETATM   35  C11 LIG G   1       3.375   6.454  15.216  1.00  0.00     0.003 A 
HETATM   36  C10 LIG G   1       3.529   5.135  15.021  1.00  0.00     0.013 A 
HETATM   37  C9  LIG G   1       3.578   4.298  16.197  1.00  0.00    -0.015 A 
HETATM   38  C7  LIG G   1       3.260   2.173  14.995  1.00  0.00    -0.001 C 
ENDBRANCH  17  20
ENDBRANCH   1  16
BRANCH  10  39
HETATM   39  O5  LIG G   1      -0.096   0.167   9.946  1.00  0.00    -0.347 OA
HETATM   40  HO5 LIG G   1      -0.468  -0.142   9.112  1.00  0.00     0.215 HD
ENDBRANCH  10  39
BRANCH   3  41
HETATM   41  C27 LIG G   1       0.711  -2.868   8.593  1.00  0.00     0.073 C 
BRANCH  41  42
HETATM   42  C28 LIG G   1       1.045  -4.296   8.782  1.00  0.00    -0.056 A 
HETATM   43  C33 LIG G   1       2.336  -4.732   8.625  1.00  0.00     0.007 A 
HETATM   44  C32 LIG G   1       2.597  -6.120   8.471  1.00  0.00     0.001 A 
HETATM   45  C31 LIG G   1       1.564  -7.108   8.569  1.00  0.00     0.000 A 
HETATM   46  C30 LIG G   1       0.267  -6.638   8.773  1.00  0.00     0.001 A 
HETATM   47  C29 LIG G   1      -0.009  -5.276   8.837  1.00  0.00     0.007 A 
ENDBRANCH  41  42
ENDBRANCH   3  41
TORSDOF 5
