REMARK VINA RESULT:      -9.7      7.958     10.179
REMARK  5 active torsions:
REMARK  status: ('A' for Active; 'I' for Inactive)
REMARK       I    between atoms: C16_10  and  N3_28 
REMARK    1  A    between atoms: C16_10  and  C6_40 
REMARK    2  A    between atoms: C17_11  and  N3_28 
REMARK    3  A    between atoms: C19_13  and  C27_24 
REMARK    4  A    between atoms: C25_22  and  O5_39 
REMARK    5  A    between atoms: C27_24  and  C28_25 
ROOT
HETATM    1  C17 LIG G   1      -2.350  -7.267  13.462  1.00  0.00     0.220 C 
HETATM    2  C18 LIG G   1      -2.355  -6.414  14.783  1.00  0.00     0.280 C 
HETATM    3  C19 LIG G   1      -3.867  -6.167  16.663  1.00  0.00     0.189 C 
HETATM    4  O2  LIG G   1      -3.776  -7.394  13.222  1.00  0.00    -0.296 OA
HETATM    5  C20 LIG G   1      -4.857  -7.288  17.224  1.00  0.00     0.243 C 
HETATM    6  C21 LIG G   1      -6.681  -8.923  16.747  1.00  0.00     0.127 C 
HETATM    7  C22 LIG G   1      -6.931  -9.692  15.474  1.00  0.00     0.022 C 
HETATM    8  C23 LIG G   1      -6.370  -8.857  14.335  1.00  0.00     0.034 C 
HETATM    9  C24 LIG G   1      -5.170  -8.123  15.089  1.00  0.00     0.173 C 
HETATM   10  C25 LIG G   1      -4.541  -6.893  14.359  1.00  0.00     0.276 C 
HETATM   11  C26 LIG G   1      -1.634  -8.496  14.053  1.00  0.00     0.082 C 
HETATM   12  O3  LIG G   1      -1.355  -5.964  15.401  1.00  0.00    -0.268 OA
HETATM   13  N4  LIG G   1      -3.665  -6.276  15.246  1.00  0.00    -0.277 N 
HETATM   14  O4  LIG G   1      -4.809  -7.458  18.440  1.00  0.00    -0.271 OA
HETATM   15  N5  LIG G   1      -5.674  -7.887  16.369  1.00  0.00    -0.338 N 
ENDROOT
BRANCH   1  16
HETATM   16  N3  LIG G   1      -1.837  -6.728  12.321  1.00  0.00    -0.321 N 
HETATM   17  C16 LIG G   1      -2.374  -6.952  11.046  1.00  0.00     0.229 C 
HETATM   18  O1  LIG G   1      -3.292  -7.733  10.899  1.00  0.00    -0.273 OA
HETATM   19  HN3 LIG G   1      -1.036  -6.129  12.360  1.00  0.00     0.166 HD
BRANCH  17  20
HETATM   20  C6  LIG G   1      -1.735  -6.116   9.962  1.00  0.00     0.127 C 
HETATM   21  C5  LIG G   1      -1.877  -4.641  10.400  1.00  0.00     0.253 C 
HETATM   22  N2  LIG G   1      -1.203  -3.818   9.364  1.00  0.00    -0.065 N 
HETATM   23  C15 LIG G   1      -1.733  -2.345   9.524  1.00  0.00     0.270 C 
HETATM   24  C4  LIG G   1       0.229  -4.000   9.188  1.00  0.00     0.225 C 
HETATM   25  HN2 LIG G   1      -1.650  -4.071   8.452  1.00  0.00     0.280 HD
HETATM   26  C3  LIG G   1       0.865  -3.393   7.904  1.00  0.00     0.079 C 
HETATM   27  C8  LIG G   1       0.553  -5.523   9.475  1.00  0.00    -0.019 C 
HETATM   28  C2  LIG G   1       2.390  -3.696   7.782  1.00  0.00    -0.027 A 
HETATM   29  C1  LIG G   1       3.467  -3.184   7.218  1.00  0.00     0.096 A 
HETATM   30  C14 LIG G   1       2.750  -4.891   8.525  1.00  0.00     0.009 A 
HETATM   31  N1  LIG G   1       4.568  -4.076   7.549  1.00  0.00    -0.365 N 
HETATM   32  C13 LIG G   1       4.114  -5.161   8.279  1.00  0.00     0.043 A 
HETATM   33  HN1 LIG G   1       5.497  -4.004   7.158  1.00  0.00     0.165 HD
HETATM   34  C12 LIG G   1       4.709  -6.278   8.743  1.00  0.00     0.030 A 
HETATM   35  C11 LIG G   1       3.929  -7.185   9.562  1.00  0.00     0.003 A 
HETATM   36  C10 LIG G   1       2.639  -6.966   9.859  1.00  0.00     0.013 A 
HETATM   37  C9  LIG G   1       2.013  -5.814   9.254  1.00  0.00    -0.015 A 
HETATM   38  C7  LIG G   1      -0.295  -6.486   9.788  1.00  0.00    -0.001 C 
ENDBRANCH  17  20
ENDBRANCH   1  16
BRANCH  10  39
HETATM   39  O5  LIG G   1      -5.347  -5.852  13.922  1.00  0.00    -0.347 OA
HETATM   40  HO5 LIG G   1      -5.264  -5.226  14.651  1.00  0.00     0.215 HD
ENDBRANCH  10  39
BRANCH   3  41
HETATM   41  C27 LIG G   1      -4.452  -4.804  17.052  1.00  0.00     0.073 C 
BRANCH  41  42
HETATM   42  C28 LIG G   1      -4.171  -4.306  18.415  1.00  0.00    -0.056 A 
HETATM   43  C33 LIG G   1      -2.898  -4.359  18.924  1.00  0.00     0.007 A 
HETATM   44  C32 LIG G   1      -2.692  -4.204  20.322  1.00  0.00     0.001 A 
HETATM   45  C31 LIG G   1      -3.761  -3.894  21.223  1.00  0.00     0.000 A 
HETATM   46  C30 LIG G   1      -5.038  -3.802  20.669  1.00  0.00     0.001 A 
HETATM   47  C29 LIG G   1      -5.261  -4.039  19.317  1.00  0.00     0.007 A 
ENDBRANCH  41  42
ENDBRANCH   3  41
TORSDOF 5
