REMARK VINA RESULT:     -11.4      2.533      3.036
REMARK  5 active torsions:
REMARK  status: ('A' for Active; 'I' for Inactive)
REMARK       I    between atoms: C16_10  and  N3_28 
REMARK    1  A    between atoms: C16_10  and  C6_40 
REMARK    2  A    between atoms: C17_11  and  N3_28 
REMARK    3  A    between atoms: C19_13  and  C27_24 
REMARK    4  A    between atoms: C25_22  and  O5_39 
REMARK    5  A    between atoms: C27_24  and  C28_25 
ROOT
HETATM    1  C17 LIG G   1       1.120   1.153  12.194  1.00  0.00     0.220 C 
HETATM    2  C18 LIG G   1       1.896   1.094  13.561  1.00  0.00     0.280 C 
HETATM    3  C19 LIG G   1       2.925   2.732  15.024  1.00  0.00     0.189 C 
HETATM    4  O2  LIG G   1       1.724   2.331  11.596  1.00  0.00    -0.296 OA
HETATM    5  C20 LIG G   1       2.472   4.255  15.193  1.00  0.00     0.243 C 
HETATM    6  C21 LIG G   1       1.968   6.440  14.098  1.00  0.00     0.127 C 
HETATM    7  C22 LIG G   1       1.395   6.681  12.724  1.00  0.00     0.022 C 
HETATM    8  C23 LIG G   1       1.801   5.498  11.861  1.00  0.00     0.034 C 
HETATM    9  C24 LIG G   1       1.850   4.348  12.966  1.00  0.00     0.173 C 
HETATM   10  C25 LIG G   1       2.574   3.024  12.558  1.00  0.00     0.276 C 
HETATM   11  C26 LIG G   1      -0.284   1.325  12.801  1.00  0.00     0.082 C 
HETATM   12  O3  LIG G   1       1.798   0.212  14.454  1.00  0.00    -0.268 OA
HETATM   13  N4  LIG G   1       2.689   2.235  13.698  1.00  0.00    -0.277 N 
HETATM   14  O4  LIG G   1       2.336   4.627  16.356  1.00  0.00    -0.271 OA
HETATM   15  N5  LIG G   1       2.344   4.995  14.101  1.00  0.00    -0.338 N 
ENDROOT
BRANCH   1  16
HETATM   16  N3  LIG G   1       1.295   0.154  11.284  1.00  0.00    -0.321 N 
HETATM   17  C16 LIG G   1       1.010   0.290   9.919  1.00  0.00     0.229 C 
HETATM   18  O1  LIG G   1       0.497   1.307   9.500  1.00  0.00    -0.273 OA
HETATM   19  HN3 LIG G   1       1.651  -0.735  11.572  1.00  0.00     0.166 HD
BRANCH  17  20
HETATM   20  C6  LIG G   1       1.441  -0.896   9.088  1.00  0.00     0.127 C 
HETATM   21  C5  LIG G   1       2.807  -1.355   9.647  1.00  0.00     0.253 C 
HETATM   22  N2  LIG G   1       3.210  -2.553   8.868  1.00  0.00    -0.065 N 
HETATM   23  C15 LIG G   1       4.758  -2.744   9.077  1.00  0.00     0.270 C 
HETATM   24  C4  LIG G   1       2.370  -3.735   8.971  1.00  0.00     0.225 C 
HETATM   25  HN2 LIG G   1       3.199  -2.266   7.861  1.00  0.00     0.280 HD
HETATM   26  C3  LIG G   1       2.600  -4.860   7.920  1.00  0.00     0.079 C 
HETATM   27  C8  LIG G   1       0.875  -3.241   9.150  1.00  0.00    -0.019 C 
HETATM   28  C2  LIG G   1       1.608  -6.052   8.082  1.00  0.00    -0.027 A 
HETATM   29  C1  LIG G   1       1.547  -7.342   7.812  1.00  0.00     0.096 A 
HETATM   30  C14 LIG G   1       0.387  -5.634   8.747  1.00  0.00     0.009 A 
HETATM   31  N1  LIG G   1       0.238  -7.794   8.261  1.00  0.00    -0.365 N 
HETATM   32  C13 LIG G   1      -0.499  -6.734   8.759  1.00  0.00     0.043 A 
HETATM   33  HN1 LIG G   1      -0.140  -8.713   8.080  1.00  0.00     0.165 HD
HETATM   34  C12 LIG G   1      -1.765  -6.619   9.210  1.00  0.00     0.030 A 
HETATM   35  C11 LIG G   1      -2.192  -5.341   9.745  1.00  0.00     0.003 A 
HETATM   36  C10 LIG G   1      -1.385  -4.269   9.793  1.00  0.00     0.013 A 
HETATM   37  C9  LIG G   1      -0.074  -4.407   9.203  1.00  0.00    -0.015 A 
HETATM   38  C7  LIG G   1       0.431  -1.998   9.173  1.00  0.00    -0.001 C 
ENDBRANCH  17  20
ENDBRANCH   1  16
BRANCH  10  39
HETATM   39  O5  LIG G   1       3.867   3.061  12.056  1.00  0.00    -0.347 OA
HETATM   40  HO5 LIG G   1       3.704   3.221  11.119  1.00  0.00     0.215 HD
ENDBRANCH  10  39
BRANCH   3  41
HETATM   41  C27 LIG G   1       4.407   2.650  15.408  1.00  0.00     0.073 C 
BRANCH  41  42
HETATM   42  C28 LIG G   1       5.070   1.334  15.293  1.00  0.00    -0.056 A 
HETATM   43  C33 LIG G   1       5.845   1.041  14.200  1.00  0.00     0.007 A 
HETATM   44  C32 LIG G   1       6.195  -0.308  13.925  1.00  0.00     0.001 A 
HETATM   45  C31 LIG G   1       5.847  -1.383  14.806  1.00  0.00     0.000 A 
HETATM   46  C30 LIG G   1       5.096  -1.049  15.932  1.00  0.00     0.001 A 
HETATM   47  C29 LIG G   1       4.675   0.256  16.163  1.00  0.00     0.007 A 
ENDBRANCH  41  42
ENDBRANCH   3  41
TORSDOF 5
