REMARK VINA RESULT:     -10.2      1.348      1.929
REMARK  5 active torsions:
REMARK  status: ('A' for Active; 'I' for Inactive)
REMARK       I    between atoms: C16_10  and  N3_28 
REMARK    1  A    between atoms: C16_10  and  C6_40 
REMARK    2  A    between atoms: C17_11  and  N3_28 
REMARK    3  A    between atoms: C19_13  and  C27_24 
REMARK    4  A    between atoms: C25_22  and  O5_39 
REMARK    5  A    between atoms: C27_24  and  C28_25 
ROOT
HETATM    1  C17 LIG G   1       0.859   1.601  12.183  1.00  0.00     0.220 C 
HETATM    2  C18 LIG G   1       1.639   1.134  13.467  1.00  0.00     0.280 C 
HETATM    3  C19 LIG G   1       3.026   2.228  15.128  1.00  0.00     0.189 C 
HETATM    4  O2  LIG G   1       1.683   2.722  11.766  1.00  0.00    -0.296 OA
HETATM    5  C20 LIG G   1       2.910   3.752  15.590  1.00  0.00     0.243 C 
HETATM    6  C21 LIG G   1       2.851   6.159  14.932  1.00  0.00     0.127 C 
HETATM    7  C22 LIG G   1       2.308   6.762  13.662  1.00  0.00     0.022 C 
HETATM    8  C23 LIG G   1       2.434   5.702  12.579  1.00  0.00     0.034 C 
HETATM    9  C24 LIG G   1       2.266   4.382  13.459  1.00  0.00     0.173 C 
HETATM   10  C25 LIG G   1       2.684   3.037  12.779  1.00  0.00     0.276 C 
HETATM   11  C26 LIG G   1      -0.462   1.939  12.898  1.00  0.00     0.082 C 
HETATM   12  O3  LIG G   1       1.379   0.140  14.195  1.00  0.00    -0.268 OA
HETATM   13  N4  LIG G   1       2.658   2.044  13.753  1.00  0.00    -0.277 N 
HETATM   14  O4  LIG G   1       2.884   3.922  16.807  1.00  0.00    -0.271 OA
HETATM   15  N5  LIG G   1       2.913   4.693  14.656  1.00  0.00    -0.338 N 
ENDROOT
BRANCH   1  16
HETATM   16  N3  LIG G   1       0.796   0.775  11.102  1.00  0.00    -0.321 N 
HETATM   17  C16 LIG G   1       0.490   1.213   9.807  1.00  0.00     0.229 C 
HETATM   18  O1  LIG G   1       0.172   2.368   9.612  1.00  0.00    -0.273 OA
HETATM   19  HN3 LIG G   1       0.980  -0.204  11.203  1.00  0.00     0.166 HD
BRANCH  17  20
HETATM   20  C6  LIG G   1       0.645   0.143   8.752  1.00  0.00     0.127 C 
HETATM   21  C5  LIG G   1       1.225   0.838   7.499  1.00  0.00     0.253 C 
HETATM   22  N2  LIG G   1       1.429  -0.219   6.476  1.00  0.00    -0.065 N 
HETATM   23  C15 LIG G   1       1.553   0.501   5.082  1.00  0.00     0.270 C 
HETATM   24  C4  LIG G   1       2.390  -1.268   6.776  1.00  0.00     0.225 C 
HETATM   25  HN2 LIG G   1       0.502  -0.691   6.352  1.00  0.00     0.280 HD
HETATM   26  C3  LIG G   1       2.363  -2.532   5.869  1.00  0.00     0.079 C 
HETATM   27  C8  LIG G   1       2.337  -1.527   8.338  1.00  0.00    -0.019 C 
HETATM   28  C2  LIG G   1       3.390  -3.618   6.313  1.00  0.00    -0.027 A 
HETATM   29  C1  LIG G   1       4.072  -4.618   5.790  1.00  0.00     0.096 A 
HETATM   30  C14 LIG G   1       3.714  -3.490   7.722  1.00  0.00     0.009 A 
HETATM   31  N1  LIG G   1       4.839  -5.206   6.878  1.00  0.00    -0.365 N 
HETATM   32  C13 LIG G   1       4.558  -4.567   8.073  1.00  0.00     0.043 A 
HETATM   33  HN1 LIG G   1       5.368  -6.064   6.804  1.00  0.00     0.165 HD
HETATM   34  C12 LIG G   1       4.936  -4.783   9.350  1.00  0.00     0.030 A 
HETATM   35  C11 LIG G   1       4.504  -3.843  10.365  1.00  0.00     0.003 A 
HETATM   36  C10 LIG G   1       3.731  -2.782  10.088  1.00  0.00     0.013 A 
HETATM   37  C9  LIG G   1       3.262  -2.648   8.729  1.00  0.00    -0.015 A 
HETATM   38  C7  LIG G   1       1.556  -0.944   9.229  1.00  0.00    -0.001 C 
ENDBRANCH  17  20
ENDBRANCH   1  16
BRANCH  10  39
HETATM   39  O5  LIG G   1       3.942   2.903  12.211  1.00  0.00    -0.347 OA
HETATM   40  HO5 LIG G   1       3.718   2.700  11.295  1.00  0.00     0.215 HD
ENDBRANCH  10  39
BRANCH   3  41
HETATM   41  C27 LIG G   1       4.467   1.777  15.398  1.00  0.00     0.073 C 
BRANCH  41  42
HETATM   42  C28 LIG G   1       4.700   0.897  16.562  1.00  0.00    -0.056 A 
HETATM   43  C33 LIG G   1       4.374  -0.434  16.502  1.00  0.00     0.007 A 
HETATM   44  C32 LIG G   1       4.278  -1.191  17.701  1.00  0.00     0.001 A 
HETATM   45  C31 LIG G   1       4.604  -0.639  18.982  1.00  0.00     0.000 A 
HETATM   46  C30 LIG G   1       4.973   0.705  19.007  1.00  0.00     0.001 A 
HETATM   47  C29 LIG G   1       4.985   1.476  17.850  1.00  0.00     0.007 A 
ENDBRANCH  41  42
ENDBRANCH   3  41
TORSDOF 5
