REMARK VINA RESULT:      -9.9      3.514      9.732
REMARK  5 active torsions:
REMARK  status: ('A' for Active; 'I' for Inactive)
REMARK       I    between atoms: C16_10  and  N3_28 
REMARK    1  A    between atoms: C16_10  and  C6_40 
REMARK    2  A    between atoms: C17_11  and  N3_28 
REMARK    3  A    between atoms: C19_13  and  C27_24 
REMARK    4  A    between atoms: C25_22  and  O5_39 
REMARK    5  A    between atoms: C27_24  and  C28_25 
ROOT
HETATM    1  C17 LIG G   1       3.402   2.810  13.614  1.00  0.00     0.220 C 
HETATM    2  C18 LIG G   1       4.019   1.790  12.589  1.00  0.00     0.280 C 
HETATM    3  C19 LIG G   1       3.154   0.463  10.753  1.00  0.00     0.189 C 
HETATM    4  O2  LIG G   1       2.045   2.303  13.709  1.00  0.00    -0.296 OA
HETATM    5  C20 LIG G   1       1.904   0.838   9.832  1.00  0.00     0.243 C 
HETATM    6  C21 LIG G   1      -0.502   1.488   9.702  1.00  0.00     0.127 C 
HETATM    7  C22 LIG G   1      -1.299   2.307  10.687  1.00  0.00     0.022 C 
HETATM    8  C23 LIG G   1      -0.661   2.101  12.051  1.00  0.00     0.034 C 
HETATM    9  C24 LIG G   1       0.858   1.870  11.619  1.00  0.00     0.173 C 
HETATM   10  C25 LIG G   1       1.805   1.269  12.708  1.00  0.00     0.276 C 
HETATM   11  C26 LIG G   1       3.614   4.069  12.753  1.00  0.00     0.082 C 
HETATM   12  O3  LIG G   1       5.214   1.738  12.193  1.00  0.00    -0.268 OA
HETATM   13  N4  LIG G   1       3.013   0.958  12.093  1.00  0.00    -0.277 N 
HETATM   14  O4  LIG G   1       2.105   0.741   8.624  1.00  0.00    -0.271 OA
HETATM   15  N5  LIG G   1       0.761   1.154  10.425  1.00  0.00    -0.338 N 
ENDROOT
BRANCH   1  16
HETATM   16  N3  LIG G   1       3.869   2.836  14.893  1.00  0.00    -0.321 N 
HETATM   17  C16 LIG G   1       3.193   3.453  15.954  1.00  0.00     0.229 C 
HETATM   18  O1  LIG G   1       2.177   4.084  15.747  1.00  0.00    -0.273 OA
HETATM   19  HN3 LIG G   1       4.737   2.395  15.124  1.00  0.00     0.166 HD
BRANCH  17  20
HETATM   20  C6  LIG G   1       3.826   3.206  17.304  1.00  0.00     0.127 C 
HETATM   21  C5  LIG G   1       4.527   1.831  17.218  1.00  0.00     0.253 C 
HETATM   22  N2  LIG G   1       5.196   1.607  18.524  1.00  0.00    -0.065 N 
HETATM   23  C15 LIG G   1       5.495   0.066  18.636  1.00  0.00     0.270 C 
HETATM   24  C4  LIG G   1       6.260   2.524  18.901  1.00  0.00     0.225 C 
HETATM   25  HN2 LIG G   1       4.452   1.698  19.255  1.00  0.00     0.280 HD
HETATM   26  C3  LIG G   1       6.727   2.494  20.385  1.00  0.00     0.079 C 
HETATM   27  C8  LIG G   1       5.888   3.948  18.314  1.00  0.00    -0.019 C 
HETATM   28  C2  LIG G   1       7.826   3.556  20.696  1.00  0.00    -0.027 A 
HETATM   29  C1  LIG G   1       8.815   3.747  21.547  1.00  0.00     0.096 A 
HETATM   30  C14 LIG G   1       7.765   4.665  19.761  1.00  0.00     0.009 A 
HETATM   31  N1  LIG G   1       9.404   5.035  21.210  1.00  0.00    -0.365 N 
HETATM   32  C13 LIG G   1       8.711   5.630  20.171  1.00  0.00     0.043 A 
HETATM   33  HN1 LIG G   1      10.108   5.502  21.764  1.00  0.00     0.165 HD
HETATM   34  C12 LIG G   1       8.807   6.830  19.562  1.00  0.00     0.030 A 
HETATM   35  C11 LIG G   1       7.949   7.096  18.424  1.00  0.00     0.003 A 
HETATM   36  C10 LIG G   1       7.055   6.206  17.967  1.00  0.00     0.013 A 
HETATM   37  C9  LIG G   1       6.911   4.977  18.712  1.00  0.00    -0.015 A 
HETATM   38  C7  LIG G   1       4.808   4.287  17.634  1.00  0.00    -0.001 C 
ENDBRANCH  17  20
ENDBRANCH   1  16
BRANCH  10  39
HETATM   39  O5  LIG G   1       1.462   0.095  13.362  1.00  0.00    -0.347 OA
HETATM   40  HO5 LIG G   1       1.382  -0.520  12.623  1.00  0.00     0.215 HD
ENDBRANCH  10  39
BRANCH   3  41
HETATM   41  C27 LIG G   1       3.302  -1.063  10.723  1.00  0.00     0.073 C 
BRANCH  41  42
HETATM   42  C28 LIG G   1       4.493  -1.645  11.376  1.00  0.00    -0.056 A 
HETATM   43  C33 LIG G   1       5.307  -2.511  10.690  1.00  0.00     0.007 A 
HETATM   44  C32 LIG G   1       6.234  -3.320  11.401  1.00  0.00     0.001 A 
HETATM   45  C31 LIG G   1       6.426  -3.200  12.816  1.00  0.00     0.000 A 
HETATM   46  C30 LIG G   1       5.615  -2.280  13.480  1.00  0.00     0.001 A 
HETATM   47  C29 LIG G   1       4.645  -1.548  12.805  1.00  0.00     0.007 A 
ENDBRANCH  41  42
ENDBRANCH   3  41
TORSDOF 5
