REMARK VINA RESULT:     -10.0      4.095     10.782
REMARK  5 active torsions:
REMARK  status: ('A' for Active; 'I' for Inactive)
REMARK       I    between atoms: C16_10  and  N3_28 
REMARK    1  A    between atoms: C16_10  and  C6_40 
REMARK    2  A    between atoms: C17_11  and  N3_28 
REMARK    3  A    between atoms: C19_13  and  C27_24 
REMARK    4  A    between atoms: C25_22  and  O5_39 
REMARK    5  A    between atoms: C27_24  and  C28_25 
ROOT
HETATM    1  C17 LIG G   1       3.954   2.258  14.517  1.00  0.00     0.220 C 
HETATM    2  C18 LIG G   1       2.596   2.530  13.771  1.00  0.00     0.280 C 
HETATM    3  C19 LIG G   1       1.524   1.655  11.779  1.00  0.00     0.189 C 
HETATM    4  O2  LIG G   1       4.792   1.854  13.402  1.00  0.00    -0.296 OA
HETATM    5  C20 LIG G   1       1.714   0.187  11.180  1.00  0.00     0.243 C 
HETATM    6  C21 LIG G   1       3.285  -1.580  10.379  1.00  0.00     0.127 C 
HETATM    7  C22 LIG G   1       4.687  -1.863  10.856  1.00  0.00     0.022 C 
HETATM    8  C23 LIG G   1       5.252  -0.549  11.373  1.00  0.00     0.034 C 
HETATM    9  C24 LIG G   1       3.914   0.146  11.895  1.00  0.00     0.173 C 
HETATM   10  C25 LIG G   1       3.998   1.678  12.191  1.00  0.00     0.276 C 
HETATM   11  C26 LIG G   1       3.426   1.137  15.431  1.00  0.00     0.082 C 
HETATM   12  O3  LIG G   1       1.528   2.970  14.272  1.00  0.00    -0.268 OA
HETATM   13  N4  LIG G   1       2.707   2.134  12.436  1.00  0.00    -0.277 N 
HETATM   14  O4  LIG G   1       0.668  -0.399  10.910  1.00  0.00    -0.271 OA
HETATM   15  N5  LIG G   1       2.948  -0.250  10.968  1.00  0.00    -0.338 N 
ENDROOT
BRANCH   1  16
HETATM   16  N3  LIG G   1       4.610   3.295  15.107  1.00  0.00    -0.321 N 
HETATM   17  C16 LIG G   1       4.238   3.848  16.340  1.00  0.00     0.229 C 
HETATM   18  O1  LIG G   1       3.231   3.469  16.901  1.00  0.00    -0.273 OA
HETATM   19  HN3 LIG G   1       5.410   3.703  14.667  1.00  0.00     0.166 HD
BRANCH  17  20
HETATM   20  C6  LIG G   1       5.216   4.874  16.865  1.00  0.00     0.127 C 
HETATM   21  C5  LIG G   1       4.423   5.790  17.825  1.00  0.00     0.253 C 
HETATM   22  N2  LIG G   1       5.390   6.767  18.385  1.00  0.00    -0.065 N 
HETATM   23  C15 LIG G   1       4.555   7.967  18.965  1.00  0.00     0.270 C 
HETATM   24  C4  LIG G   1       6.473   6.246  19.205  1.00  0.00     0.225 C 
HETATM   25  HN2 LIG G   1       5.838   7.239  17.566  1.00  0.00     0.280 HD
HETATM   26  C3  LIG G   1       7.654   7.212  19.513  1.00  0.00     0.079 C 
HETATM   27  C8  LIG G   1       6.865   4.824  18.626  1.00  0.00    -0.019 C 
HETATM   28  C2  LIG G   1       8.787   6.536  20.345  1.00  0.00    -0.027 A 
HETATM   29  C1  LIG G   1       9.746   6.878  21.184  1.00  0.00     0.096 A 
HETATM   30  C14 LIG G   1       8.784   5.096  20.166  1.00  0.00     0.009 A 
HETATM   31  N1  LIG G   1      10.434   5.647  21.543  1.00  0.00    -0.365 N 
HETATM   32  C13 LIG G   1       9.897   4.570  20.859  1.00  0.00     0.043 A 
HETATM   33  HN1 LIG G   1      11.289   5.608  22.081  1.00  0.00     0.165 HD
HETATM   34  C12 LIG G   1      10.226   3.265  20.782  1.00  0.00     0.030 A 
HETATM   35  C11 LIG G   1       9.372   2.383  20.013  1.00  0.00     0.003 A 
HETATM   36  C10 LIG G   1       8.281   2.816  19.361  1.00  0.00     0.013 A 
HETATM   37  C9  LIG G   1       8.026   4.237  19.382  1.00  0.00    -0.015 A 
HETATM   38  C7  LIG G   1       6.351   4.207  17.578  1.00  0.00    -0.001 C 
ENDBRANCH  17  20
ENDBRANCH   1  16
BRANCH  10  39
HETATM   39  O5  LIG G   1       4.473   2.552  11.223  1.00  0.00    -0.347 OA
HETATM   40  HO5 LIG G   1       4.201   3.404  11.584  1.00  0.00     0.215 HD
ENDBRANCH  10  39
BRANCH   3  41
HETATM   41  C27 LIG G   1       1.106   2.571  10.622  1.00  0.00     0.073 C 
BRANCH  41  42
HETATM   42  C28 LIG G   1       0.424   3.836  10.965  1.00  0.00    -0.056 A 
HETATM   43  C33 LIG G   1      -0.807   4.127  10.433  1.00  0.00     0.007 A 
HETATM   44  C32 LIG G   1      -1.300   5.459  10.486  1.00  0.00     0.001 A 
HETATM   45  C31 LIG G   1      -0.600   6.507  11.166  1.00  0.00     0.000 A 
HETATM   46  C30 LIG G   1       0.628   6.171  11.735  1.00  0.00     0.001 A 
HETATM   47  C29 LIG G   1       1.159   4.892  11.612  1.00  0.00     0.007 A 
ENDBRANCH  41  42
ENDBRANCH   3  41
TORSDOF 5
