REMARK VINA RESULT:     -10.6      3.489      6.295
REMARK  5 active torsions:
REMARK  status: ('A' for Active; 'I' for Inactive)
REMARK       I    between atoms: C16_10  and  N3_28 
REMARK    1  A    between atoms: C16_10  and  C6_40 
REMARK    2  A    between atoms: C17_11  and  N3_28 
REMARK    3  A    between atoms: C19_13  and  C27_24 
REMARK    4  A    between atoms: C25_22  and  O5_39 
REMARK    5  A    between atoms: C27_24  and  C28_25 
ROOT
HETATM    1  C17 LIG G   1       4.363   3.065  16.344  1.00  0.00     0.220 C 
HETATM    2  C18 LIG G   1       5.385   3.825  17.266  1.00  0.00     0.280 C 
HETATM    3  C19 LIG G   1       5.421   5.977  18.383  1.00  0.00     0.189 C 
HETATM    4  O2  LIG G   1       3.699   4.186  15.703  1.00  0.00    -0.296 OA
HETATM    5  C20 LIG G   1       4.144   6.785  18.904  1.00  0.00     0.243 C 
HETATM    6  C21 LIG G   1       1.912   7.771  18.379  1.00  0.00     0.127 C 
HETATM    7  C22 LIG G   1       0.886   7.276  17.392  1.00  0.00     0.022 C 
HETATM    8  C23 LIG G   1       1.643   6.536  16.300  1.00  0.00     0.034 C 
HETATM    9  C24 LIG G   1       2.878   5.979  17.143  1.00  0.00     0.173 C 
HETATM   10  C25 LIG G   1       4.096   5.447  16.321  1.00  0.00     0.276 C 
HETATM   11  C26 LIG G   1       3.597   2.361  17.479  1.00  0.00     0.082 C 
HETATM   12  O3  LIG G   1       6.265   3.314  18.009  1.00  0.00    -0.268 OA
HETATM   13  N4  LIG G   1       5.133   5.197  17.213  1.00  0.00    -0.277 N 
HETATM   14  O4  LIG G   1       4.228   7.192  20.060  1.00  0.00    -0.271 OA
HETATM   15  N5  LIG G   1       3.150   7.001  18.054  1.00  0.00    -0.338 N 
ENDROOT
BRANCH   1  16
HETATM   16  N3  LIG G   1       4.831   2.291  15.325  1.00  0.00    -0.321 N 
HETATM   17  C16 LIG G   1       5.138   0.930  15.462  1.00  0.00     0.229 C 
HETATM   18  O1  LIG G   1       5.081   0.398  16.551  1.00  0.00    -0.273 OA
HETATM   19  HN3 LIG G   1       4.968   2.682  14.415  1.00  0.00     0.166 HD
BRANCH  17  20
HETATM   20  C6  LIG G   1       5.480   0.250  14.157  1.00  0.00     0.127 C 
HETATM   21  C5  LIG G   1       5.763  -1.232  14.491  1.00  0.00     0.253 C 
HETATM   22  N2  LIG G   1       6.047  -1.916  13.204  1.00  0.00    -0.065 N 
HETATM   23  C15 LIG G   1       6.788  -3.262  13.547  1.00  0.00     0.270 C 
HETATM   24  C4  LIG G   1       4.975  -1.973  12.223  1.00  0.00     0.225 C 
HETATM   25  HN2 LIG G   1       6.832  -1.388  12.757  1.00  0.00     0.280 HD
HETATM   26  C3  LIG G   1       5.365  -2.389  10.774  1.00  0.00     0.079 C 
HETATM   27  C8  LIG G   1       4.131  -0.640  12.364  1.00  0.00    -0.019 C 
HETATM   28  C2  LIG G   1       4.156  -2.358   9.790  1.00  0.00    -0.027 A 
HETATM   29  C1  LIG G   1       3.774  -2.927   8.662  1.00  0.00     0.096 A 
HETATM   30  C14 LIG G   1       3.124  -1.448  10.252  1.00  0.00     0.009 A 
HETATM   31  N1  LIG G   1       2.478  -2.353   8.332  1.00  0.00    -0.365 N 
HETATM   32  C13 LIG G   1       2.119  -1.392   9.261  1.00  0.00     0.043 A 
HETATM   33  HN1 LIG G   1       1.990  -2.510   7.461  1.00  0.00     0.165 HD
HETATM   34  C12 LIG G   1       1.080  -0.537   9.354  1.00  0.00     0.030 A 
HETATM   35  C11 LIG G   1       0.977   0.296  10.536  1.00  0.00     0.003 A 
HETATM   36  C10 LIG G   1       1.881   0.263  11.527  1.00  0.00     0.013 A 
HETATM   37  C9  LIG G   1       3.032  -0.588  11.337  1.00  0.00    -0.015 A 
HETATM   38  C7  LIG G   1       4.347   0.372  13.185  1.00  0.00    -0.001 C 
ENDBRANCH  17  20
ENDBRANCH   1  16
BRANCH  10  39
HETATM   39  O5  LIG G   1       4.686   6.245  15.351  1.00  0.00    -0.347 OA
HETATM   40  HO5 LIG G   1       5.351   6.715  15.868  1.00  0.00     0.215 HD
ENDBRANCH  10  39
BRANCH   3  41
HETATM   41  C27 LIG G   1       6.535   6.999  18.128  1.00  0.00     0.073 C 
BRANCH  41  42
HETATM   42  C28 LIG G   1       7.739   6.923  18.982  1.00  0.00    -0.056 A 
HETATM   43  C33 LIG G   1       8.838   6.214  18.570  1.00  0.00     0.007 A 
HETATM   44  C32 LIG G   1       9.842   5.860  19.511  1.00  0.00     0.001 A 
HETATM   45  C31 LIG G   1       9.802   6.300  20.874  1.00  0.00     0.000 A 
HETATM   46  C30 LIG G   1       8.694   7.057  21.253  1.00  0.00     0.001 A 
HETATM   47  C29 LIG G   1       7.664   7.334  20.361  1.00  0.00     0.007 A 
ENDBRANCH  41  42
ENDBRANCH   3  41
TORSDOF 5
