REMARK VINA RESULT:     -11.8      0.000      0.000
REMARK  5 active torsions:
REMARK  status: ('A' for Active; 'I' for Inactive)
REMARK       I    between atoms: C16_10  and  N3_28 
REMARK    1  A    between atoms: C16_10  and  C6_40 
REMARK    2  A    between atoms: C17_11  and  N3_28 
REMARK    3  A    between atoms: C19_13  and  C27_24 
REMARK    4  A    between atoms: C25_22  and  O5_39 
REMARK    5  A    between atoms: C27_24  and  C28_25 
ROOT
HETATM    1  C17 LIG G   1       1.424   1.340  12.727  1.00  0.00     0.220 C 
HETATM    2  C18 LIG G   1       2.487   0.846  13.776  1.00  0.00     0.280 C 
HETATM    3  C19 LIG G   1       4.073   1.929  15.256  1.00  0.00     0.189 C 
HETATM    4  O2  LIG G   1       2.039   2.582  12.292  1.00  0.00    -0.296 OA
HETATM    5  C20 LIG G   1       3.912   3.380  15.904  1.00  0.00     0.243 C 
HETATM    6  C21 LIG G   1       3.498   5.816  15.550  1.00  0.00     0.127 C 
HETATM    7  C22 LIG G   1       2.656   6.471  14.484  1.00  0.00     0.022 C 
HETATM    8  C23 LIG G   1       2.658   5.538  13.283  1.00  0.00     0.034 C 
HETATM    9  C24 LIG G   1       2.795   4.130  14.021  1.00  0.00     0.173 C 
HETATM   10  C25 LIG G   1       3.190   2.912  13.125  1.00  0.00     0.276 C 
HETATM   11  C26 LIG G   1       0.249   1.457  13.715  1.00  0.00     0.082 C 
HETATM   12  O3  LIG G   1       2.473  -0.235  14.421  1.00  0.00    -0.268 OA
HETATM   13  N4  LIG G   1       3.454   1.836  13.964  1.00  0.00    -0.277 N 
HETATM   14  O4  LIG G   1       4.116   3.431  17.114  1.00  0.00    -0.271 OA
HETATM   15  N5  LIG G   1       3.639   4.399  15.101  1.00  0.00    -0.338 N 
ENDROOT
BRANCH   1  16
HETATM   16  N3  LIG G   1       1.221   0.618  11.591  1.00  0.00    -0.321 N 
HETATM   17  C16 LIG G   1       0.692   1.158  10.411  1.00  0.00     0.229 C 
HETATM   18  O1  LIG G   1       0.300   2.307  10.388  1.00  0.00    -0.273 OA
HETATM   19  HN3 LIG G   1       1.459  -0.354  11.560  1.00  0.00     0.166 HD
BRANCH  17  20
HETATM   20  C6  LIG G   1       0.718   0.204   9.240  1.00  0.00     0.127 C 
HETATM   21  C5  LIG G   1       1.219   1.011   8.021  1.00  0.00     0.253 C 
HETATM   22  N2  LIG G   1       1.297   0.064   6.880  1.00  0.00    -0.065 N 
HETATM   23  C15 LIG G   1       1.333   0.925   5.564  1.00  0.00     0.270 C 
HETATM   24  C4  LIG G   1       2.238  -1.039   6.986  1.00  0.00     0.225 C 
HETATM   25  HN2 LIG G   1       0.346  -0.364   6.788  1.00  0.00     0.280 HD
HETATM   26  C3  LIG G   1       2.088  -2.197   5.957  1.00  0.00     0.079 C 
HETATM   27  C8  LIG G   1       2.304  -1.462   8.511  1.00  0.00    -0.019 C 
HETATM   28  C2  LIG G   1       3.105  -3.355   6.196  1.00  0.00    -0.027 A 
HETATM   29  C1  LIG G   1       3.704  -4.313   5.514  1.00  0.00     0.096 A 
HETATM   30  C14 LIG G   1       3.550  -3.388   7.578  1.00  0.00     0.009 A 
HETATM   31  N1  LIG G   1       4.534  -5.036   6.466  1.00  0.00    -0.365 N 
HETATM   32  C13 LIG G   1       4.378  -4.521   7.740  1.00  0.00     0.043 A 
HETATM   33  HN1 LIG G   1       5.022  -5.896   6.257  1.00  0.00     0.165 HD
HETATM   34  C12 LIG G   1       4.851  -4.883   8.950  1.00  0.00     0.030 A 
HETATM   35  C11 LIG G   1       4.541  -4.045  10.091  1.00  0.00     0.003 A 
HETATM   36  C10 LIG G   1       3.789  -2.938   9.994  1.00  0.00     0.013 A 
HETATM   37  C9  LIG G   1       3.215  -2.645   8.701  1.00  0.00    -0.015 A 
HETATM   38  C7  LIG G   1       1.623  -0.955   9.522  1.00  0.00    -0.001 C 
ENDBRANCH  17  20
ENDBRANCH   1  16
BRANCH  10  39
HETATM   39  O5  LIG G   1       4.315   2.976  12.315  1.00  0.00    -0.347 OA
HETATM   40  HO5 LIG G   1       4.152   3.791  11.825  1.00  0.00     0.215 HD
ENDBRANCH  10  39
BRANCH   3  41
HETATM   41  C27 LIG G   1       5.574   1.622  15.192  1.00  0.00     0.073 C 
BRANCH  41  42
HETATM   42  C28 LIG G   1       5.987   0.381  14.503  1.00  0.00    -0.056 A 
HETATM   43  C33 LIG G   1       6.495   0.431  13.229  1.00  0.00     0.007 A 
HETATM   44  C32 LIG G   1       6.570  -0.757  12.453  1.00  0.00     0.001 A 
HETATM   45  C31 LIG G   1       6.222  -2.041  12.985  1.00  0.00     0.000 A 
HETATM   46  C30 LIG G   1       5.750  -2.067  14.297  1.00  0.00     0.001 A 
HETATM   47  C29 LIG G   1       5.591  -0.898  15.034  1.00  0.00     0.007 A 
ENDBRANCH  41  42
ENDBRANCH   3  41
TORSDOF 5
